/*--------------------------------*- C++ -*----------------------------------*\
| =========                 |                                                 |
| \\      /  F ield         | OpenFOAM: The Open Source CFD Toolbox           |
|  \\    /   O peration     | Version:  2212                                  |
|   \\  /    A nd           | Website:  www.openfoam.com                      |
|    \\/     M anipulation  |                                                 |
\*---------------------------------------------------------------------------*/
FoamFile
{
    version     2.0;
    format      ascii;
    arch        "LSB;label=32;scalar=64";
    class       polyBoundaryMesh;
    location    "constant/polyMesh";
    object      boundary;
}
// * * * * * * * * * * * * * * * * * * * * * * * * * * * * * * * * * * * * * //

4
(
    solidWall
    {
        type            wall;
        inGroups        1(wall);
        nFaces          100;
        startFace       2120;
    }
    inlet
    {
        type            patch;
        nFaces          10;
        startFace       2220;
    }
    outlet
    {
        type            patch;
        nFaces          50;
        startFace       2230;
    }
    emptyBody
    {
        type            empty;
        inGroups        1(empty);
        nFaces          2200;
        startFace       2280;
    }
)

// ************************************************************************* //
